LTspice 26.0.2 for Windows
Circuit: C:\Users\NARENDRA\Desktop\Hardware_projects\Comparator\LTSPICE_Comparator.net
Start Time: Sun May 31 17:51:09 2026
solver = Normal
Maximum thread count: 4
tnom = 27
temp = 27
method = trap
Direct Newton iteration succeeded in finding operating point.
Total elapsed time: 0.147 seconds.

Files loaded:
C:\Users\NARENDRA\Desktop\Hardware_projects\Comparator\LTSPICE_Comparator.net
C:\Users\NARENDRA\AppData\Local\LTspice\lib\cmp\standard.dio
C:\Users\NARENDRA\AppData\Local\LTspice\lib\sub\LTC.lib

